ROOT
ATOM      1  C1  UNL     1      -2.874   2.052   0.066  0.00  0.00    +0.055 C 
ATOM      2  C2  UNL     1      -1.342   2.028   0.012  0.00  0.00    +0.087 C 
ATOM      3  N1  UNL     1      -0.854   0.658   0.013  0.00  0.00    -0.302 NA
ATOM      4  C3  UNL     1      -1.176  -0.089   1.233  0.00  0.00    +0.087 C 
ATOM      5  C4  UNL     1      -2.360   0.492   2.011  0.00  0.00    +0.055 C 
ATOM      6  C5  UNL     1      -3.461   1.056   1.097  0.00  0.00    +0.093 C 
ENDROOT
ATOM      7  C6  UNL     1      -4.283  -0.087   0.482  0.00  0.00    -0.016 A 
ATOM      8  C7  UNL     1      -5.443  -0.562   1.127  0.00  0.00    +0.008 A 
ATOM      9  C8  UNL     1      -6.192  -1.617   0.597  0.00  0.00    +0.020 A 
ATOM     10  C9  UNL     1      -5.786  -2.225  -0.586  0.00  0.00    +0.041 A 
ATOM     11  C10 UNL     1      -4.637  -1.789  -1.238  0.00  0.00    +0.020 A 
ATOM     12  C11 UNL     1      -3.893  -0.731  -0.706  0.00  0.00    +0.008 A 
ATOM     13 CL1  UNL     1      -6.702  -3.527  -1.240  0.00  0.00    -0.084 Cl
ATOM     14  O1  UNL     1      -4.358   1.818   1.933  0.00  0.00    -0.384 OA
ATOM     15  H13 UNL     1      -3.840   2.511   2.374  0.00  0.00    +0.211 HD
ATOM     16  C12 UNL     1       0.539   0.495  -0.414  0.00  0.00    +0.085 C 
ATOM     17  C13 UNL     1       1.581   1.292   0.388  0.00  0.00    +0.023 C 
ATOM     18  C14 UNL     1       3.003   1.073  -0.137  0.00  0.00    +0.081 C 
ATOM     19  C15 UNL     1       3.566  -0.299   0.202  0.00  0.00    +0.163 C 
ATOM     20  O2  UNL     1       2.985  -1.077   0.955  0.00  0.00    -0.292 OA
ATOM     21  C16 UNL     1       4.877  -0.702  -0.394  0.00  0.00    +0.018 A 
ATOM     22  C17 UNL     1       5.670   0.187  -1.134  0.00  0.00    +0.014 A 
ATOM     23  C18 UNL     1       6.891  -0.240  -1.667  0.00  0.00    +0.039 A 
ATOM     24  C19 UNL     1       7.317  -1.548  -1.458  0.00  0.00    +0.123 A 
ATOM     25  C20 UNL     1       6.545  -2.441  -0.725  0.00  0.00    +0.039 A 
ATOM     26  C21 UNL     1       5.325  -2.018  -0.191  0.00  0.00    +0.014 A 
ATOM     27  F1  UNL     1       8.489  -1.948  -1.968  0.00  0.00    -0.205 F 
TORSDOF 7