ROOT
ATOM      1  C1  UNL     1       0.900  -0.020   0.081  0.00  0.00    +0.034 C 
ATOM      2  C2  UNL     1      -0.556  -0.408  -0.067  0.00  0.00    +0.152 C 
ENDROOT
ATOM      3  O1  UNL     1      -1.388   0.657   0.371  0.00  0.00    -0.395 OA
ATOM      4  H6  UNL     1      -1.188   1.432  -0.182  0.00  0.00    +0.209 HD
TORSDOF 1